Circuit: * C:\Users\kris-\OneDrive\Dokumenter\KEA-DESKTOP-KMMLUTD\Microprocessor\Common-Projects\AudioAmplifier\ltspice simulation\TheLastChanceBeforeSuicide.asc

